
     RDKit          3D

 33 37  0  0  0  0  0  0  0  0999 V2000
    9.8976    9.7247  -15.0267 C   0  0  0  0  0  0  0  0  0  0  0  0
    9.8334   10.2536  -13.7061 O   0  0  0  0  0  0  0  0  0  0  0  0
    9.5404    9.3400  -12.6916 C   0  0  0  0  0  0  0  0  0  0  0  0
    9.0083    8.0902  -12.9712 C   0  0  0  0  0  0  0  0  0  0  0  0
    8.7159    7.1827  -11.9802 C   0  0  0  0  0  0  0  0  0  0  0  0
    8.1938    5.9554  -12.2528 N   0  0  0  0  0  0  0  0  0  0  0  0
    7.9153    5.0822  -11.2641 C   0  0  0  0  0  0  0  0  0  0  0  0
    7.3697    3.7921  -11.5061 N   0  0  0  0  0  0  0  0  0  0  0  0
    7.1337    3.3092  -12.8527 C   0  0  0  0  0  0  0  0  0  0  0  0
    5.6292    3.1724  -12.9792 C   0  0  0  0  0  0  0  0  0  0  0  0
    5.1485    2.2970  -11.9138 N   0  0  0  0  0  0  0  0  0  0  0  0
    3.9466    1.5918  -12.1811 C   0  0  0  0  0  0  0  0  0  0  0  0
    3.5209    1.6709  -13.3852 O   0  0  0  0  0  0  0  0  0  0  0  0
    3.1655    0.8039  -11.2431 C   0  0  0  0  0  0  0  0  0  0  0  0
    3.1156    1.4158   -9.8507 C   0  0  0  0  0  0  0  0  0  0  0  0
    2.6156    0.3967   -8.9968 O   0  0  0  0  0  0  0  0  0  0  0  0
    1.4104   -0.2210   -9.3808 C   0  0  0  0  0  0  0  0  0  0  0  0
    0.6578   -0.9001   -8.4439 C   0  0  0  0  0  0  0  0  0  0  0  0
   -0.5302   -1.5038   -8.8429 C   0  0  0  0  0  0  0  0  0  0  0  0
   -0.9352   -1.4140  -10.1644 C   0  0  0  0  0  0  0  0  0  0  0  0
   -0.1472   -0.7226  -11.0659 C   0  0  0  0  0  0  0  0  0  0  0  0
    1.0338   -0.1140  -10.7031 C   0  0  0  0  0  0  0  0  0  0  0  0
    1.8212    0.5787  -11.6107 O   0  0  0  0  0  0  0  0  0  0  0  0
    5.7951    2.1155  -10.6583 C   0  0  0  0  0  0  0  0  0  0  0  0
    7.0286    2.9100  -10.4131 C   0  0  0  0  0  0  0  0  0  0  0  0
    8.1635    5.4456   -9.9925 N   0  0  0  0  0  0  0  0  0  0  0  0
    8.6805    6.6475   -9.6523 C   0  0  0  0  0  0  0  0  0  0  0  0
    8.9324    7.0073   -8.3007 N   0  0  0  0  0  0  0  0  0  0  0  0
    8.9725    7.5597  -10.6746 C   0  0  0  0  0  0  0  0  0  0  0  0
    9.5022    8.7991  -10.3710 C   0  0  0  0  0  0  0  0  0  0  0  0
    9.7924    9.7030  -11.3718 C   0  0  0  0  0  0  0  0  0  0  0  0
   10.3251   10.9621  -11.1341 O   0  0  0  0  0  0  0  0  0  0  0  0
   10.7923   11.3574   -9.8759 C   0  0  0  0  0  0  0  0  0  0  0  0
  1  2  1  0
  2  3  1  0
  3  4  2  0
  4  5  1  0
  5  6  2  0
  6  7  1  0
  7  8  1  0
  8  9  1  0
  9 10  1  0
 10 11  1  0
 11 12  1  0
 12 13  2  0
 12 14  1  0
 14 15  1  0
 15 16  1  0
 16 17  1  0
 17 18  2  0
 18 19  1  0
 19 20  2  0
 20 21  1  0
 21 22  2  0
 22 23  1  0
 11 24  1  0
 24 25  1  0
  7 26  2  0
 26 27  1  0
 27 28  1  0
 27 29  2  0
 29 30  1  0
 30 31  2  0
 31 32  1  0
 32 33  1  0
 31  3  1  0
 29  5  1  0
 25  8  1  0
 23 14  1  0
 22 17  1  0
M  END
$$$$
