
     RDKit          3D

 71 75  0  0  0  0  0  0  0  0999 V2000
   17.3995   -9.8148  -30.3164 C   0  0  0  0  0  0  0  0  0  0  0  0
   16.9999   -8.7102  -31.2415 C   0  0  0  0  0  0  0  0  0  0  0  0
   16.0041   -7.9384  -30.6500 O   0  0  0  0  0  0  0  0  0  0  0  0
   16.5189   -9.1885  -32.5837 C   0  0  0  0  0  0  0  0  0  0  0  0
   15.0527   -9.5751  -32.5039 C   0  0  0  0  0  0  0  0  0  0  0  0
   14.9144  -10.9374  -32.8669 O   0  0  0  0  0  0  0  0  0  0  0  0
   16.7040   -8.1581  -33.6114 N   0  0  0  0  0  0  0  0  0  0  0  0
   17.8773   -7.3398  -33.4567 C   0  0  0  0  0  0  0  0  0  0  0  0
   18.9241   -7.7624  -32.9048 O   0  0  0  0  0  0  0  0  0  0  0  0
   17.8733   -5.9165  -33.9687 C   0  0  0  0  0  0  0  0  0  0  0  0
   19.1624   -5.7121  -34.6842 C   0  0  0  0  0  0  0  0  0  0  0  0
   20.5554   -5.4979  -33.5006 S   0  0  0  0  0  0  0  0  0  0  0  0
   22.2866   -6.4426  -34.2420 S   0  0  0  0  0  0  0  0  0  0  0  0
   22.4645   -6.2232  -36.0093 C   0  0  0  0  0  0  0  0  0  0  0  0
   23.0576   -4.8347  -36.2604 C   0  0  0  0  0  0  0  0  0  0  0  0
   24.1772   -4.5910  -35.3833 N   0  0  0  0  0  0  0  0  0  0  0  0
   24.2210   -4.7799  -34.0014 C   0  0  0  0  0  0  0  0  0  0  0  0
   23.2436   -4.7682  -33.2155 O   0  0  0  0  0  0  0  0  0  0  0  0
   25.5699   -5.0222  -33.3633 C   0  0  0  0  0  0  0  0  0  0  0  0
   26.2529   -3.7955  -33.1172 N   0  0  0  0  0  0  0  0  0  0  0  0
   25.3409   -5.7733  -32.1022 C   0  0  0  0  0  0  0  0  0  0  0  0
   26.4181   -5.6756  -31.0943 C   0  0  0  0  0  0  0  0  0  0  0  0
   27.6228   -5.1440  -31.5373 C   0  0  0  0  0  0  0  0  0  0  0  0
   28.6621   -5.0502  -30.6339 C   0  0  0  0  0  0  0  0  0  0  0  0
   28.5596   -5.4573  -29.3227 C   0  0  0  0  0  0  0  0  0  0  0  0
   27.3620   -5.9846  -28.8860 C   0  0  0  0  0  0  0  0  0  0  0  0
   26.3160   -6.0820  -29.7861 C   0  0  0  0  0  0  0  0  0  0  0  0
   23.4418   -4.6732  -37.6732 C   0  0  0  0  0  0  0  0  0  0  0  0
   23.7960   -5.7476  -38.2745 O   0  0  0  0  0  0  0  0  0  0  0  0
   23.4662   -3.4926  -38.4233 N   0  0  0  0  0  0  0  0  0  0  0  0
   22.3190   -2.5787  -38.5958 C   0  0  0  0  0  0  0  0  0  0  0  0
   22.7602   -1.1954  -38.2556 C   0  0  0  0  0  0  0  0  0  0  0  0
   22.9571   -0.9155  -36.8056 C   0  0  0  0  0  0  0  0  0  0  0  0
   24.1883   -0.9032  -36.1922 C   0  0  0  0  0  0  0  0  0  0  0  0
   24.3106   -0.6593  -34.8256 C   0  0  0  0  0  0  0  0  0  0  0  0
   23.1387   -0.4368  -34.1481 C   0  0  0  0  0  0  0  0  0  0  0  0
   21.8945   -0.4393  -34.7133 C   0  0  0  0  0  0  0  0  0  0  0  0
   21.7654   -0.6853  -36.0906 C   0  0  0  0  0  0  0  0  0  0  0  0
   21.8778   -2.7009  -40.0183 C   0  0  0  0  0  0  0  0  0  0  0  0
   22.7746   -2.3755  -40.8826 O   0  0  0  0  0  0  0  0  0  0  0  0
   20.6493   -3.1176  -40.5021 N   0  0  0  0  0  0  0  0  0  0  0  0
   19.3193   -2.6274  -40.2569 C   0  0  0  0  0  0  0  0  0  0  0  0
   19.2631   -1.1174  -40.2012 C   0  0  0  0  0  0  0  0  0  0  0  0
   20.2214   -0.4292  -41.0901 C   0  0  0  0  0  0  0  0  0  0  0  0
   21.4131   -1.0448  -41.4982 C   0  0  0  0  0  0  0  0  0  0  0  0
   22.1207   -0.1704  -42.2493 N   0  0  0  0  0  0  0  0  0  0  0  0
   21.4261    1.0010  -42.3465 C   0  0  0  0  0  0  0  0  0  0  0  0
   21.6815    2.1972  -42.9906 C   0  0  0  0  0  0  0  0  0  0  0  0
   20.8007    3.2632  -42.9557 C   0  0  0  0  0  0  0  0  0  0  0  0
   19.6301    3.0635  -42.2300 C   0  0  0  0  0  0  0  0  0  0  0  0
   19.3706    1.8615  -41.5814 C   0  0  0  0  0  0  0  0  0  0  0  0
   20.2628    0.8211  -41.6295 C   0  0  0  0  0  0  0  0  0  0  0  0
   18.4111   -3.0481  -41.3863 C   0  0  0  0  0  0  0  0  0  0  0  0
   18.9110   -2.8358  -42.5515 O   0  0  0  0  0  0  0  0  0  0  0  0
   17.1439   -3.6188  -41.2193 N   0  0  0  0  0  0  0  0  0  0  0  0
   16.8709   -4.8585  -40.4827 C   0  0  0  0  0  0  0  0  0  0  0  0
   16.0080   -5.7021  -41.4462 C   0  0  0  0  0  0  0  0  0  0  0  0
   16.6042   -5.7012  -42.8153 C   0  0  0  0  0  0  0  0  0  0  0  0
   15.9424   -6.6834  -43.7497 C   0  0  0  0  0  0  0  0  0  0  0  0
   16.5242   -6.6035  -45.1527 C   0  0  0  0  0  0  0  0  0  0  0  0
   15.9435   -7.5999  -46.0455 N   0  0  0  0  0  0  0  0  0  0  0  0
   16.1736   -4.6023  -39.2261 C   0  0  0  0  0  0  0  0  0  0  0  0
   15.0001   -4.0574  -39.3536 O   0  0  0  0  0  0  0  0  0  0  0  0
   16.5791   -4.8530  -37.9172 N   0  0  0  0  0  0  0  0  0  0  0  0
   16.8057   -6.0503  -37.1973 C   0  0  0  0  0  0  0  0  0  0  0  0
   16.5185   -7.3554  -37.8478 C   0  0  0  0  0  0  0  0  0  0  0  0
   16.5116   -7.3416  -39.3436 C   0  0  0  0  0  0  0  0  0  0  0  0
   15.4716   -8.0821  -37.3600 O   0  0  0  0  0  0  0  0  0  0  0  0
   16.1601   -6.0766  -35.8556 C   0  0  0  0  0  0  0  0  0  0  0  0
   14.9952   -6.6364  -35.8415 O   0  0  0  0  0  0  0  0  0  0  0  0
   16.6711   -5.5741  -34.6653 N   0  0  0  0  0  0  0  0  0  0  0  0
  1  2  1  0
  2  3  1  0
  2  4  1  0
  4  5  1  0
  5  6  1  0
  4  7  1  0
  7  8  1  0
  8  9  2  0
  8 10  1  0
 10 11  1  0
 11 12  1  0
 12 13  1  0
 13 14  1  0
 14 15  1  0
 15 16  1  0
 16 17  1  0
 17 18  2  0
 17 19  1  0
 19 20  1  0
 19 21  1  0
 21 22  1  0
 22 23  2  0
 23 24  1  0
 24 25  2  0
 25 26  1  0
 26 27  2  0
 15 28  1  0
 28 29  2  0
 28 30  1  0
 30 31  1  0
 31 32  1  0
 32 33  1  0
 33 34  2  0
 34 35  1  0
 35 36  2  0
 36 37  1  0
 37 38  2  0
 31 39  1  0
 39 40  2  0
 39 41  1  0
 41 42  1  0
 42 43  1  0
 43 44  1  0
 44 45  2  0
 45 46  1  0
 46 47  1  0
 47 48  2  0
 48 49  1  0
 49 50  2  0
 50 51  1  0
 51 52  2  0
 42 53  1  0
 53 54  2  0
 53 55  1  0
 55 56  1  0
 56 57  1  0
 57 58  1  0
 58 59  1  0
 59 60  1  0
 60 61  1  0
 56 62  1  0
 62 63  2  0
 62 64  1  0
 64 65  1  0
 65 66  1  0
 66 67  1  0
 66 68  1  0
 65 69  1  0
 69 70  2  0
 69 71  1  0
 71 10  1  0
 27 22  1  0
 38 33  1  0
 52 44  1  0
 52 47  1  0
M  END
$$$$
