
     RDKit          2D

 21 24  0  0  1  0  0  0  0  0999 V2000
    0.4549  -10.4852   -1.5526 C   0  0  0  0  0  0  0  0  0  0  0  0
    1.0739  -10.9166   -1.2201 C   0  0  0  0  0  0  0  0  0  0  0  0
    1.5557  -11.3902   -1.7089 C   0  0  0  0  0  0  0  0  0  0  0  0
    1.4059  -11.4213   -2.5239 C   0  0  0  0  0  0  0  0  0  0  0  0
    1.8908  -11.8948   -2.9979 C   0  0  0  0  0  0  0  0  0  0  0  0
    0.0803  -10.0744   -0.9420 C   0  0  0  0  0  0  0  0  0  0  0  0
    1.0870  -10.7783   -0.4142 C   0  0  0  0  0  0  0  0  0  0  0  0
    2.5100  -12.3263   -2.6653 C   0  0  0  0  0  0  0  0  0  0  0  0
    0.4721  -10.2555   -0.2333 C   0  0  0  0  0  0  0  0  0  0  0  0
    0.3114  -10.5207   -2.3643 C   0  0  0  0  0  0  0  0  0  0  0  0
    0.7849  -10.9870   -2.8489 C   0  0  0  0  0  0  0  0  0  0  0  0
    2.1728  -11.8187   -1.3688 C   0  0  0  0  0  0  0  0  0  0  0  0
    1.7506  -11.9325   -3.8079 C   0  0  0  0  0  0  0  0  0  0  0  0
    2.6535  -12.2908   -1.8537 C   0  0  0  0  0  0  0  0  0  0  0  0
    2.9918  -12.7975   -3.1410 C   0  0  0  0  0  0  0  0  0  0  0  0
    0.2762   -9.9621    0.5120 F   0  0  0  0  0  0  0  0  0  0  0  0
    2.8515  -12.8352   -3.9510 C   0  0  0  0  0  0  0  0  0  0  0  0
   -0.5667   -9.5736   -1.0190 O   0  0  0  0  0  0  0  0  0  0  0  0
    2.2292  -12.4016   -4.2853 C   0  0  0  0  0  0  0  0  0  0  0  0
   -0.1641  -10.0538   -1.8852 C   0  0  0  0  0  0  0  0  0  0  0  0
    3.3312  -13.3059   -4.4322 O   0  0  0  0  0  0  0  0  0  0  0  0
  2  1  1  0
  3  2  1  0
  4 11  1  1
  5  4  1  0
  6  1  1  0
  2  7  1  1
  8  5  2  0
  9  6  1  0
 10  1  1  0
 11 10  1  0
  3 12  1  6
 13  5  1  0
 14 12  1  0
 15  8  1  0
  9 16  1  6
 17 19  1  0
  6 18  1  1
 19 13  2  0
  1 20  1  1
 21 17  1  0
  9  7  1  0
  4  3  1  0
 14  8  1  0
 17 15  2  0
M  ISO  1  16  18
M  END
>  <chembl_id>  (1) 
CHEMBL4594261

>  <chembl_pref_name>  (1) 
FLUOROESTRADIOL F-18
$$$$

$$$$
