
     RDKit          2D

 26 30  0  0  0  0  0  0  0  0999 V2000
   -2.9574  -15.0146   -8.0640 Cl  0  0  0  0  0  0  0  0  0  0  0  0
   -2.4652  -14.3658   -7.0131 C   0  0  0  0  0  0  0  0  0  0  0  0
   -2.4485  -13.6756   -6.8584 C   0  0  0  0  0  0  0  0  0  0  0  0
   -2.1850  -14.8368   -6.5644 C   0  0  0  0  0  0  0  0  0  0  0  0
   -2.7574  -14.5934   -7.6088 C   0  0  0  0  0  0  0  0  0  0  0  0
   -2.2035  -15.5242   -6.7218 C   0  0  0  0  0  0  0  0  0  0  0  0
   -2.5602  -15.3352   -7.3661 O   0  0  0  0  0  0  0  0  0  0  0  0
   -2.1552  -13.4598   -6.2626 C   0  0  0  0  0  0  0  0  0  0  0  0
   -2.1367  -12.7724   -6.1052 N   0  0  0  0  0  0  0  0  0  0  0  0
   -1.8896  -14.6147   -5.9634 C   0  0  0  0  0  0  0  0  0  0  0  0
   -1.8712  -13.9273   -5.8060 C   0  0  0  0  0  0  0  0  0  0  0  0
   -2.1655  -14.1462   -6.4044 C   0  0  0  0  0  0  0  0  0  0  0  0
   -2.7265  -13.2133   -7.3044 C   0  0  0  0  0  0  0  0  0  0  0  0
   -3.0376  -14.1225   -8.0576 C   0  0  0  0  0  0  0  0  0  0  0  0
   -2.2873  -12.0991   -6.2715 C   0  0  0  0  0  0  0  0  0  0  0  0
   -1.9248  -15.9924   -6.2756 C   0  0  0  0  0  0  0  0  0  0  0  0
   -1.8581  -13.2406   -5.6590 C   0  0  0  0  0  0  0  0  0  0  0  0
   -2.6214  -11.9579   -6.8814 C   0  0  0  0  0  0  0  0  0  0  0  0
   -2.9180  -12.1682   -7.4824 C   0  0  0  0  0  0  0  0  0  0  0  0
   -2.9012  -11.4780   -7.3276 C   0  0  0  0  0  0  0  0  0  0  0  0
   -1.6110  -15.0829   -5.5173 C   0  0  0  0  0  0  0  0  0  0  0  0
   -3.0229  -13.4384   -7.9080 C   0  0  0  0  0  0  0  0  0  0  0  0
   -2.4300  -12.9882   -6.7010 O   0  0  0  0  0  0  0  0  0  0  0  0
   -3.3351  -14.3506   -8.6636 O   0  0  0  0  0  0  0  0  0  0  0  0
   -1.6294  -15.7703   -5.6747 C   0  0  0  0  0  0  0  0  0  0  0  0
   -1.9400  -16.6853   -6.4278 O   0  0  0  0  0  0  0  0  0  0  0  0
  3  2  1  0
  4  2  1  0
  5  2  1  0
  6  4  1  0
  5  7  1  1
  8  3  1  0
  9 17  1  0
 10  4  2  0
 11 10  1  0
  2 12  1  6
 13  3  1  0
 14  5  1  0
 15  9  1  0
 16  6  2  0
 17 12  1  0
 18 15  1  0
 19 18  1  0
 20 18  1  0
 21 10  1  0
 22 14  1  0
  3 23  1  6
 24 14  2  0
 25 21  2  0
 26 16  1  0
  7  6  1  0
  8  9  1  0
 22 13  1  0
  8 11  1  6
 16 25  1  0
 19 20  1  0
M  END
>  <chembl_id>  (1) 
CHEMBL1201149

>  <chembl_pref_name>  (1) 
NALTREXONE HYDROCHLORIDE
$$$$

$$$$
