
     RDKit          2D

 19 20  0  0  0  0  0  0  0  0999 V2000
   -0.6964  -11.0843   -4.5610 C   0  0  0  0  0  0  0  0  0  0  0  0
   -1.0026  -12.1210   -3.5153 S   0  0  0  0  0  0  0  0  0  0  0  0
   -1.0843  -11.3049   -5.9879 C   0  0  0  0  0  0  0  0  0  0  0  0
   -0.0235   -9.7541   -4.4721 S   0  0  0  0  0  0  0  0  0  0  0  0
    0.0103   -9.1518   -5.8161 C   0  0  0  0  0  0  0  0  0  0  0  0
    0.5991   -7.8188   -6.1645 S   0  0  0  0  0  0  0  0  0  0  0  0
   -0.6479  -10.1092   -6.7689 C   0  0  0  0  0  0  0  0  0  0  0  0
   -1.7133  -13.3997   -3.9267 C   0  0  0  0  0  0  0  0  0  0  0  0
   -1.7879  -12.5675   -6.4037 C   0  0  0  0  0  0  0  0  0  0  0  0
   -2.1012  -13.6203   -5.3535 C   0  0  0  0  0  0  0  0  0  0  0  0
   -0.4427  -11.1000   -3.2252 O   0  0  0  0  0  0  0  0  0  0  0  0
   -1.2621  -12.9687   -2.7066 O   0  0  0  0  0  0  0  0  0  0  0  0
    1.1509   -7.1670   -5.3213 O   0  0  0  0  0  0  0  0  0  0  0  0
    0.5189   -7.4026   -7.2872 O   0  0  0  0  0  0  0  0  0  0  0  0
    1.0705   -6.7512   -6.4440 N   0  0  0  0  0  0  0  0  0  0  0  0
   -2.1751  -12.7838   -7.8373 N   0  0  0  0  0  0  0  0  0  0  0  0
   -1.9640  -14.2356   -3.1030 C   0  0  0  0  0  0  0  0  0  0  0  0
   -2.6446  -14.1345   -8.2930 C   0  0  0  0  0  0  0  0  0  0  0  0
   -2.9892  -14.2982   -9.4307 C   0  0  0  0  0  0  0  0  0  0  0  0
  1  2  1  0
  1  3  2  0
  1  4  1  0
  4  5  1  0
  5  6  1  0
  3  7  1  0
  5  7  2  0
  2  8  1  0
  3  9  1  0
  8 10  1  0
  9 10  1  0
  2 11  2  0
  2 12  2  0
  6 13  2  0
  6 14  2  0
  6 15  1  0
  9 16  1  0
  8 17  1  0
 16 18  1  0
 18 19  1  0
M  END
>  <chembl_id>  (1) 
CHEMBL269001

>  <chembl_pref_name>  (1) 
None
$$$$

$$$$
