
     RDKit          3D

 34 37  0  0  0  0  0  0  0  0999 V2000
   -5.1244   40.4705   16.3823 C   0  0  0  0  0  0  0  0  0  0  0  0
   -5.5310   41.5290   15.4758 N   0  0  0  0  0  0  0  0  0  0  0  0
   -5.0310   41.3185   14.1344 C   0  0  0  0  0  0  0  0  0  0  0  0
   -6.9624   41.7111   15.4767 C   0  0  0  0  0  0  0  0  0  0  0  0
   -7.6868   40.4371   15.3756 C   0  0  0  0  0  0  0  0  0  0  0  0
   -8.9963   40.2895   15.4171 C   0  0  0  0  0  0  0  0  0  0  0  0
   -9.6788   39.0102   15.3075 C   0  0  0  0  0  0  0  0  0  0  0  0
   -9.0513   37.9081   15.4305 O   0  0  0  0  0  0  0  0  0  0  0  0
  -11.0772   38.8854   15.0583 N   0  0  0  0  0  0  0  0  0  0  0  0
  -11.6065   37.5445   15.0079 C   0  0  0  0  0  0  0  0  0  0  0  0
  -10.7681   36.4805   14.7012 C   0  0  0  0  0  0  0  0  0  0  0  0
  -11.2227   35.1875   14.6428 C   0  0  0  0  0  0  0  0  0  0  0  0
  -10.4026   34.1044   14.3322 C   0  0  0  0  0  0  0  0  0  0  0  0
   -9.0435   34.2919   14.0856 N   0  0  0  0  0  0  0  0  0  0  0  0
   -8.1538   33.3222   13.5232 C   0  0  0  0  0  0  0  0  0  0  0  0
   -6.9201   33.0669   14.1270 C   0  0  0  0  0  0  0  0  0  0  0  0
   -6.0193   32.1603   13.6265 C   0  0  0  0  0  0  0  0  0  0  0  0
   -6.3022   31.4551   12.4895 C   0  0  0  0  0  0  0  0  0  0  0  0
   -5.4174   30.5575   11.9911 F   0  0  0  0  0  0  0  0  0  0  0  0
   -7.5099   31.6847   11.8721 C   0  0  0  0  0  0  0  0  0  0  0  0
   -7.8857   30.7835   10.4088 Cl  0  0  0  0  0  0  0  0  0  0  0  0
   -8.4258   32.6097   12.3845 C   0  0  0  0  0  0  0  0  0  0  0  0
  -10.9999   32.9063   14.3102 N   0  0  0  0  0  0  0  0  0  0  0  0
  -12.2953   32.6976   14.5612 C   0  0  0  0  0  0  0  0  0  0  0  0
  -13.0795   33.7520   14.8605 N   0  0  0  0  0  0  0  0  0  0  0  0
  -12.5756   34.9983   14.9083 C   0  0  0  0  0  0  0  0  0  0  0  0
  -13.4159   36.0437   15.2128 C   0  0  0  0  0  0  0  0  0  0  0  0
  -12.9682   37.3419   15.2736 C   0  0  0  0  0  0  0  0  0  0  0  0
  -13.7085   38.4430   15.5632 O   0  0  0  0  0  0  0  0  0  0  0  0
  -15.0704   38.4225   15.7963 C   0  0  1  0  0  0  0  0  0  0  0  0
  -15.4549   38.9485   17.1619 C   0  0  0  0  0  0  0  0  0  0  0  0
  -16.0766   40.2793   16.8434 C   0  0  0  0  0  0  0  0  0  0  0  0
  -16.6781   40.1094   15.5894 O   0  0  0  0  0  0  0  0  0  0  0  0
  -15.6999   39.4610   14.8468 C   0  0  0  0  0  0  0  0  0  0  0  0
  1  2  1  0
  2  3  1  0
  2  4  1  0
  4  5  1  0
  5  6  2  0
  6  7  1  0
  7  8  2  0
  7  9  1  0
  9 10  1  0
 10 11  2  0
 11 12  1  0
 12 13  2  0
 13 14  1  0
 14 15  1  0
 15 16  1  0
 16 17  2  0
 17 18  1  0
 18 19  1  0
 18 20  2  0
 20 21  1  0
 20 22  1  0
 13 23  1  0
 23 24  2  0
 24 25  1  0
 25 26  2  0
 26 27  1  0
 27 28  2  0
 28 29  1  0
 30 29  1  1
 30 31  1  0
 31 32  1  0
 32 33  1  0
 33 34  1  0
 28 10  1  0
 34 30  1  0
 26 12  1  0
 22 15  2  0
M  END
$$$$
