
     RDKit          3D

 26 29  0  0  0  0  0  0  0  0999 V2000
   40.9272    7.1750  -26.7646 C   0  0  0  0  0  0  0  0  0  0  0  0
   39.7300    7.5501  -25.9592 C   0  0  1  0  0  0  0  0  0  0  0  0
   39.8640    7.4087  -24.4744 C   0  0  0  0  0  0  0  0  0  0  0  0
   41.2124    7.5361  -23.9673 N   0  0  0  0  0  0  0  0  0  0  0  0
   41.5494    7.8463  -22.6399 C   0  0  0  0  0  0  0  0  0  0  0  0
   42.4156    7.1217  -22.0261 O   0  0  0  0  0  0  0  0  0  0  0  0
   41.0001    8.9434  -21.8572 C   0  0  0  0  0  0  0  0  0  0  0  0
   40.6603    9.0985  -20.5019 C   0  0  0  0  0  0  0  0  0  0  0  0
   40.1870   10.3689  -20.3594 N   0  0  0  0  0  0  0  0  0  0  0  0
   40.2041   11.0151  -21.5099 N   0  0  0  0  0  0  0  0  0  0  0  0
   39.8697   12.2391  -21.9604 C   0  0  0  0  0  0  0  0  0  0  0  0
   40.0278   12.5935  -23.3088 C   0  0  0  0  0  0  0  0  0  0  0  0
   40.5399   11.6323  -24.1469 C   0  0  0  0  0  0  0  0  0  0  0  0
   40.8769   10.4067  -23.7035 N   0  0  0  0  0  0  0  0  0  0  0  0
   40.6944   10.1540  -22.4101 C   0  0  0  0  0  0  0  0  0  0  0  0
   40.7485   11.8485  -25.5562 N   0  0  0  0  0  0  0  0  0  0  0  0
   41.0276   10.6950  -26.4403 C   0  0  2  0  0  0  0  0  0  0  0  0
   42.3734   11.0198  -27.0698 C   0  0  0  0  0  0  0  0  0  0  0  0
   39.9771   10.5172  -27.4669 C   0  0  0  0  0  0  0  0  0  0  0  0
   40.0112   11.4406  -28.5191 C   0  0  0  0  0  0  0  0  0  0  0  0
   39.0931   11.4175  -29.5425 C   0  0  0  0  0  0  0  0  0  0  0  0
   39.1694   12.3309  -30.5352 F   0  0  0  0  0  0  0  0  0  0  0  0
   38.1281   10.4393  -29.4904 C   0  0  0  0  0  0  0  0  0  0  0  0
   38.0833    9.5287  -28.4657 C   0  0  0  0  0  0  0  0  0  0  0  0
   39.0038    9.5220  -27.4060 C   0  0  0  0  0  0  0  0  0  0  0  0
   39.0003    8.6515  -26.3826 O   0  0  0  0  0  0  0  0  0  0  0  0
  2  1  1  6
  2  3  1  0
  3  4  1  0
  4  5  1  0
  5  6  2  0
  5  7  1  0
  7  8  1  0
  8  9  2  0
  9 10  1  0
 10 11  1  0
 11 12  2  0
 12 13  1  0
 13 14  2  0
 14 15  1  0
 13 16  1  0
 16 17  1  0
 17 18  1  6
 17 19  1  0
 19 20  1  0
 20 21  2  0
 21 22  1  0
 21 23  1  0
 23 24  2  0
 24 25  1  0
 25 26  1  0
 26  2  1  0
 15  7  2  0
 25 19  2  0
 15 10  1  0
M  END
$$$$
