
     RDKit          2D

 24 28  0  0  0  0  0  0  0  0999 V2000
    7.1068   16.2274  -25.7593 C   0  0  0  0  0  0  0  0  0  0  0  0
    6.3263   16.3867  -25.6381 C   0  0  0  0  0  0  0  0  0  0  0  0
    7.3160   15.6212  -26.2457 C   0  0  0  0  0  0  0  0  0  0  0  0
    7.6653   16.6615  -25.4045 C   0  0  0  0  0  0  0  0  0  0  0  0
    8.0914   15.4641  -26.3652 C   0  0  0  0  0  0  0  0  0  0  0  0
    8.3393   16.1307  -25.8259 O   0  0  0  0  0  0  0  0  0  0  0  0
    5.7788   15.9948  -25.9589 C   0  0  0  0  0  0  0  0  0  0  0  0
    6.7557   15.1801  -26.6063 C   0  0  0  0  0  0  0  0  0  0  0  0
    4.9970   15.7745  -26.1435 N   0  0  0  0  0  0  0  0  0  0  0  0
    5.9722   15.3355  -26.4882 C   0  0  0  0  0  0  0  0  0  0  0  0
    6.5387   15.7713  -26.1320 C   0  0  0  0  0  0  0  0  0  0  0  0
    6.1192   16.9866  -25.1567 C   0  0  0  0  0  0  0  0  0  0  0  0
    7.4623   17.2622  -24.9224 C   0  0  0  0  0  0  0  0  0  0  0  0
    8.3057   14.8557  -26.8534 C   0  0  0  0  0  0  0  0  0  0  0  0
    5.5974   15.5681  -26.3042 C   0  0  0  0  0  0  0  0  0  0  0  0
    6.9649   14.5740  -27.0926 C   0  0  0  0  0  0  0  0  0  0  0  0
    6.6854   17.4357  -24.7897 C   0  0  0  0  0  0  0  0  0  0  0  0
    5.5418   16.5453  -25.5176 O   0  0  0  0  0  0  0  0  0  0  0  0
    8.0364   17.7129  -24.5540 O   0  0  0  0  0  0  0  0  0  0  0  0
    7.7384   14.4098  -27.2178 C   0  0  0  0  0  0  0  0  0  0  0  0
    3.7927   15.5218  -25.4452 C   0  0  0  0  0  0  0  0  0  0  0  0
    3.6839   14.7268  -25.5140 C   0  0  0  0  0  0  0  0  0  0  0  0
    4.1977   15.9267  -26.0282 C   0  0  0  0  0  0  0  0  0  0  0  0
    9.0934   14.6878  -26.9814 O   0  0  0  0  0  0  0  0  0  0  0  0
  2  1  1  0
  3  1  1  0
  4  1  1  0
  5  3  1  0
  4  6  1  1
  7  2  1  0
  8  3  2  0
  9 15  1  0
 10  8  1  0
  1 11  1  6
 12  2  1  0
 13  4  1  0
 14  5  2  0
 15 11  1  0
 16  8  1  0
 17 13  1  0
  2 18  1  6
 19 13  2  0
 20 16  2  0
 21 23  1  0
 22 21  2  0
 23  9  1  0
 24 14  1  0
  6  5  1  0
  7  9  1  0
 17 12  1  0
  7 10  1  6
 20 14  1  0
M  END
>  <chembl_id>  (1) 
CHEMBL3249799

>  <chembl_pref_name>  (1) 
None
$$$$

$$$$
