
     RDKit          3D

 31 34  0  0  0  0  0  0  0  0999 V2000
  -39.9789    4.1592  -16.7027 C   0  0  0  0  0  0  0  0  0  0  0  0
  -39.1411    4.5371  -17.8466 C   0  0  0  0  0  0  0  0  0  0  0  0
  -39.6415    4.3472  -19.1127 C   0  0  0  0  0  0  0  0  0  0  0  0
  -38.8860    4.6950  -20.2294 C   0  0  0  0  0  0  0  0  0  0  0  0
  -37.6299    5.2352  -20.1464 C   0  0  0  0  0  0  0  0  0  0  0  0
  -36.8196    5.6100  -21.2333 N   0  0  0  0  0  0  0  0  0  0  0  0
  -35.5853    6.2946  -21.1626 C   0  0  0  0  0  0  0  0  0  0  0  0
  -34.9183    6.8131  -22.1878 N   0  0  0  0  0  0  0  0  0  0  0  0
  -33.7665    7.4767  -22.1698 C   0  0  0  0  0  0  0  0  0  0  0  0
  -33.1709    7.6594  -20.9269 C   0  0  0  0  0  0  0  0  0  0  0  0
  -33.8314    7.1333  -19.8099 C   0  0  0  0  0  0  0  0  0  0  0  0
  -33.2045    7.3722  -18.5570 N   0  0  0  0  0  0  0  0  0  0  0  0
  -32.0802    8.3145  -18.5626 C   0  0  0  0  0  0  0  0  0  0  0  0
  -33.5939    6.7394  -17.3482 C   0  0  0  0  0  0  0  0  0  0  0  0
  -33.7519    7.3734  -16.1501 C   0  0  0  0  0  0  0  0  0  0  0  0
  -34.1584    6.6742  -15.0151 C   0  0  0  0  0  0  0  0  0  0  0  0
  -34.4174    5.3233  -15.0480 C   0  0  0  0  0  0  0  0  0  0  0  0
  -34.8243    4.3480  -14.1692 C   0  0  0  0  0  0  0  0  0  0  0  0
  -35.1211    4.5969  -12.7371 C   0  0  0  0  0  0  0  0  0  0  0  0
  -34.9080    3.1683  -14.8095 N   0  0  0  0  0  0  0  0  0  0  0  0
  -35.2900    1.8669  -14.3045 C   0  0  0  0  0  0  0  0  0  0  0  0
  -34.5638    3.3895  -16.0631 N   0  0  0  0  0  0  0  0  0  0  0  0
  -34.2566    4.6843  -16.2600 C   0  0  0  0  0  0  0  0  0  0  0  0
  -33.8545    5.3629  -17.3901 C   0  0  0  0  0  0  0  0  0  0  0  0
  -35.0037    6.4712  -19.9343 N   0  0  0  0  0  0  0  0  0  0  0  0
  -37.1291    5.4246  -18.8609 C   0  0  0  0  0  0  0  0  0  0  0  0
  -37.8682    5.0830  -17.7312 C   0  0  0  0  0  0  0  0  0  0  0  0
  -37.2523    5.3095  -16.1154 S   0  0  0  0  0  0  0  0  0  0  0  0
  -36.8474    3.7546  -15.4261 N   0  0  0  0  0  0  0  0  0  0  0  0
  -36.0188    6.1384  -16.0580 O   0  0  0  0  0  0  0  0  0  0  0  0
  -38.3828    5.9002  -15.2868 O   0  0  0  0  0  0  0  0  0  0  0  0
  1  2  1  0
  2  3  1  0
  3  4  2  0
  4  5  1  0
  5  6  1  0
  6  7  1  0
  7  8  2  0
  8  9  1  0
  9 10  2  0
 10 11  1  0
 11 12  1  0
 12 13  1  0
 12 14  1  0
 14 15  1  0
 15 16  2  0
 16 17  1  0
 17 18  2  0
 18 19  1  0
 18 20  1  0
 20 21  1  0
 20 22  1  0
 22 23  2  0
 23 24  1  0
 11 25  2  0
  5 26  2  0
 26 27  1  0
 27 28  1  0
 28 29  1  0
 28 30  2  0
 28 31  2  0
 27  2  2  0
 25  7  1  0
 24 14  2  0
 23 17  1  0
M  END
$$$$
