
     RDKit          3D

 27 30  0  0  0  0  0  0  0  0999 V2000
    5.8006   12.9295    7.8940 C   0  0  0  0  0  0  0  0  0  0  0  0
    5.0846   11.8094    8.4567 N   0  0  0  0  0  0  0  0  0  0  0  0
    5.8235   11.0984    9.4481 C   0  0  0  0  0  0  0  0  0  0  0  0
    7.1428   10.5641    8.9507 C   0  0  0  0  0  0  0  0  0  0  0  0
    6.9176    9.7841    7.6552 C   0  0  0  0  0  0  0  0  0  0  0  0
    5.7129    8.9141    7.8714 C   0  0  0  0  0  0  0  0  0  0  0  0
    5.8670    7.6979    7.0655 N   0  0  0  0  0  0  0  0  0  0  0  0
    6.2556    7.7270    5.8042 N   0  0  0  0  0  0  0  0  0  0  0  0
    6.3982    6.5898    5.0607 C   0  0  0  0  0  0  0  0  0  0  0  0
    6.7884    6.7484    3.6645 C   0  0  0  0  0  0  0  0  0  0  0  0
    7.1327    8.0974    3.2258 C   0  0  0  0  0  0  0  0  0  0  0  0
    6.1335    8.8137    2.5503 C   0  0  0  0  0  0  0  0  0  0  0  0
    6.3299   10.0962    2.0968 C   0  0  0  0  0  0  0  0  0  0  0  0
    7.5323   10.7378    2.2903 C   0  0  0  0  0  0  0  0  0  0  0  0
    7.7161   12.3719    1.6875 Cl  0  0  0  0  0  0  0  0  0  0  0  0
    8.5321   10.0607    2.9501 C   0  0  0  0  0  0  0  0  0  0  0  0
    8.3191    8.7552    3.4072 C   0  0  0  0  0  0  0  0  0  0  0  0
    6.1118    5.4176    5.7125 C   0  0  0  0  0  0  0  0  0  0  0  0
    6.2435    4.2338    5.0496 C   0  0  0  0  0  0  0  0  0  0  0  0
    5.9854    3.0308    5.6445 C   0  0  0  0  0  0  0  0  0  0  0  0
    5.5750    2.9520    6.9584 C   0  0  0  0  0  0  0  0  0  0  0  0
    5.4352    4.1411    7.6520 C   0  0  0  0  0  0  0  0  0  0  0  0
    5.7028    5.3619    7.0315 C   0  0  0  0  0  0  0  0  0  0  0  0
    5.5802    6.5421    7.7184 C   0  0  0  0  0  0  0  0  0  0  0  0
    5.2069    6.5403    8.9347 O   0  0  0  0  0  0  0  0  0  0  0  0
    4.4022    9.5695    7.6411 C   0  0  0  0  0  0  0  0  0  0  0  0
    4.4029   11.0443    7.4803 C   0  0  0  0  0  0  0  0  0  0  0  0
  1  2  1  0
  2  3  1  0
  3  4  1  0
  4  5  1  0
  5  6  1  0
  6  7  1  0
  7  8  1  0
  8  9  2  0
  9 10  1  0
 10 11  1  0
 11 12  1  0
 12 13  2  0
 13 14  1  0
 14 15  1  0
 14 16  2  0
 16 17  1  0
  9 18  1  0
 18 19  2  0
 19 20  1  0
 20 21  2  0
 21 22  1  0
 22 23  2  0
 23 24  1  0
 24 25  2  0
  6 26  1  0
 26 27  1  0
 27  2  1  0
 24  7  1  0
 17 11  2  0
 23 18  1  0
M  END
$$$$
