
     RDKit          3D

 27 30  0  0  0  0  0  0  0  0999 V2000
   22.0282  -12.0490  -29.4970 C   0  0  0  0  0  0  0  0  0  0  0  0
   21.2872  -11.5673  -28.3629 N   0  0  0  0  0  0  0  0  0  0  0  0
   20.2443  -10.6691  -28.7408 C   0  0  0  0  0  0  0  0  0  0  0  0
   19.2885  -10.5335  -27.5651 C   0  0  0  0  0  0  0  0  0  0  0  0
   19.3042  -11.7914  -26.7052 C   0  0  0  0  0  0  0  0  0  0  0  0
   20.4898  -11.8456  -25.7744 C   0  0  0  0  0  0  0  0  0  0  0  0
   19.9524  -11.8681  -24.4356 N   0  0  0  0  0  0  0  0  0  0  0  0
   19.4266  -10.7298  -23.9917 N   0  0  0  0  0  0  0  0  0  0  0  0
   18.8818  -10.5727  -22.7710 C   0  0  0  0  0  0  0  0  0  0  0  0
   18.3771   -9.2251  -22.4196 C   0  0  0  0  0  0  0  0  0  0  0  0
   18.5283   -8.2158  -23.4772 C   0  0  0  0  0  0  0  0  0  0  0  0
   17.6842   -7.9825  -24.5220 C   0  0  0  0  0  0  0  0  0  0  0  0
   17.8912   -6.9983  -25.4803 C   0  0  0  0  0  0  0  0  0  0  0  0
   19.0266   -6.1850  -25.3898 C   0  0  0  0  0  0  0  0  0  0  0  0
   19.2849   -4.9456  -26.5985 Cl  0  0  0  0  0  0  0  0  0  0  0  0
   19.8958   -6.4028  -24.3407 C   0  0  0  0  0  0  0  0  0  0  0  0
   19.6627   -7.3958  -23.3960 C   0  0  0  0  0  0  0  0  0  0  0  0
   18.8733  -11.6602  -21.9445 C   0  0  0  0  0  0  0  0  0  0  0  0
   18.3268  -11.5811  -20.6997 C   0  0  0  0  0  0  0  0  0  0  0  0
   18.3166  -12.6882  -19.8815 C   0  0  0  0  0  0  0  0  0  0  0  0
   18.8504  -13.9002  -20.2856 C   0  0  0  0  0  0  0  0  0  0  0  0
   19.4036  -13.9878  -21.5439 C   0  0  0  0  0  0  0  0  0  0  0  0
   19.4022  -12.8665  -22.3447 C   0  0  0  0  0  0  0  0  0  0  0  0
   19.9402  -12.9156  -23.6266 C   0  0  0  0  0  0  0  0  0  0  0  0
   20.4188  -13.9939  -23.9975 O   0  0  0  0  0  0  0  0  0  0  0  0
   21.5521  -10.8466  -26.0288 C   0  0  0  0  0  0  0  0  0  0  0  0
   22.1908  -11.0744  -27.3745 C   0  0  0  0  0  0  0  0  0  0  0  0
  1  2  1  0
  2  3  1  0
  3  4  1  0
  4  5  1  0
  5  6  1  0
  6  7  1  0
  7  8  1  0
  8  9  2  0
  9 10  1  0
 10 11  1  0
 11 12  1  0
 12 13  2  0
 13 14  1  0
 14 15  1  0
 14 16  2  0
 16 17  1  0
  9 18  1  0
 18 19  2  0
 19 20  1  0
 20 21  2  0
 21 22  1  0
 22 23  2  0
 23 24  1  0
 24 25  2  0
  6 26  1  0
 26 27  1  0
 27  2  1  0
 24  7  1  0
 17 11  2  0
 23 18  1  0
M  END
$$$$
