
     RDKit          3D

 37 41  0  0  0  0  0  0  0  0999 V2000
  -23.4890    4.2198   -9.9729 C   0  0  0  0  0  0  0  0  0  0  0  0
  -23.0936    4.6480   -8.6086 C   0  0  0  0  0  0  0  0  0  0  0  0
  -23.9028    5.3788   -7.8177 N   0  0  0  0  0  0  0  0  0  0  0  0
  -23.2882    5.6040   -6.6676 N   0  0  0  0  0  0  0  0  0  0  0  0
  -22.0848    5.0087   -6.7415 C   0  0  0  0  0  0  0  0  0  0  0  0
  -21.1090    5.0485   -5.6150 C   0  0  0  0  0  0  0  0  0  0  0  0
  -21.2244    3.6756   -4.9276 C   0  0  0  0  0  0  0  0  0  0  0  0
  -21.4739    6.0759   -4.5724 C   0  0  0  0  0  0  0  0  0  0  0  0
  -21.9326    4.4010   -7.9455 N   0  0  0  0  0  0  0  0  0  0  0  0
  -20.7925    3.6497   -8.4260 C   0  0  1  0  0  0  0  0  0  0  0  0
  -21.0236    2.1645   -8.3704 C   0  0  0  0  0  0  0  0  0  0  0  0
  -20.2456    1.3460   -9.3281 C   0  0  1  0  0  0  0  0  0  0  0  0
  -21.0399    1.2005  -10.6089 C   0  0  0  0  0  0  0  0  0  0  0  0
  -20.5160    2.3055  -11.4389 C   0  0  0  0  0  0  0  0  0  0  0  0
  -19.5897    3.0642  -10.5602 C   0  0  1  0  0  0  0  0  0  0  0  0
  -20.2087    4.1356   -9.7115 C   0  0  0  0  0  0  0  0  0  0  0  0
  -19.0125    2.0439   -9.7251 N   0  0  0  0  0  0  0  0  0  0  0  0
  -18.2455    1.0589  -10.4051 C   0  0  0  0  0  0  0  0  0  0  0  0
  -16.8308    1.4278  -10.7291 C   0  0  0  0  0  0  0  0  0  0  0  0
  -16.8259    1.8829  -12.1956 C   0  0  2  0  0  0  0  0  0  0  0  0
  -16.0993    0.9319  -13.0137 N   0  0  0  0  0  0  0  0  0  0  0  0
  -16.0342   -0.4569  -12.6596 C   0  0  0  0  0  0  0  0  0  0  0  0
  -16.9006   -0.8484  -11.8314 O   0  0  0  0  0  0  0  0  0  0  0  0
  -15.0055   -1.3641  -13.2397 C   0  0  0  0  0  0  0  0  0  0  0  0
  -14.3921   -0.7664  -14.4684 C   0  0  0  0  0  0  0  0  0  0  0  0
  -13.3467   -1.7241  -14.9907 C   0  0  0  0  0  0  0  0  0  0  0  0
  -13.8505   -3.1342  -15.0352 C   0  0  0  0  0  0  0  0  0  0  0  0
  -13.3015   -3.8004  -13.9354 F   0  0  0  0  0  0  0  0  0  0  0  0
  -13.5007   -3.7753  -16.2128 F   0  0  0  0  0  0  0  0  0  0  0  0
  -15.3365   -3.2077  -14.8660 C   0  0  0  0  0  0  0  0  0  0  0  0
  -15.6880   -2.6944  -13.4973 C   0  0  0  0  0  0  0  0  0  0  0  0
  -16.2196    3.2263  -12.3515 C   0  0  0  0  0  0  0  0  0  0  0  0
  -16.8011    4.2963  -11.6723 C   0  0  0  0  0  0  0  0  0  0  0  0
  -16.2802    5.5857  -11.7779 C   0  0  0  0  0  0  0  0  0  0  0  0
  -15.1737    5.7995  -12.5671 C   0  0  0  0  0  0  0  0  0  0  0  0
  -14.5825    4.7494  -13.2490 C   0  0  0  0  0  0  0  0  0  0  0  0
  -15.1163    3.4857  -13.1277 C   0  0  0  0  0  0  0  0  0  0  0  0
  1  2  1  0
  2  3  2  0
  3  4  1  0
  4  5  2  0
  5  6  1  0
  6  7  1  0
  6  8  1  0
  5  9  1  0
 10  9  1  6
 10 11  1  0
 12 11  1  1
 12 13  1  0
 13 14  1  0
 15 14  1  6
 15 16  1  0
 15 17  1  0
 17 18  1  0
 18 19  1  0
 20 19  1  1
 20 21  1  0
 21 22  1  0
 22 23  2  0
 22 24  1  0
 24 25  1  0
 25 26  1  0
 26 27  1  0
 27 28  1  0
 27 29  1  0
 27 30  1  0
 30 31  1  0
 20 32  1  0
 32 33  2  0
 33 34  1  0
 34 35  2  0
 35 36  1  0
 36 37  2  0
  9  2  1  0
 16 10  1  0
 31 24  1  0
 37 32  1  0
 17 12  1  0
M  END
$$$$
