
     RDKit          3D

 37 41  0  0  0  0  0  0  0  0999 V2000
  -10.2684   -2.5931   16.4587 C   0  0  0  0  0  0  0  0  0  0  0  0
  -11.6201   -3.1681   16.2723 C   0  0  0  0  0  0  0  0  0  0  0  0
  -12.6278   -2.9322   17.1361 N   0  0  0  0  0  0  0  0  0  0  0  0
  -13.6796   -3.5760   16.6761 N   0  0  0  0  0  0  0  0  0  0  0  0
  -13.3835   -4.2273   15.5346 C   0  0  0  0  0  0  0  0  0  0  0  0
  -14.3505   -5.0225   14.7772 C   0  0  0  0  0  0  0  0  0  0  0  0
  -15.6881   -4.4099   14.5479 C   0  0  0  0  0  0  0  0  0  0  0  0
  -13.7852   -5.2369   13.3477 C   0  0  0  0  0  0  0  0  0  0  0  0
  -12.0674   -3.9779   15.2605 N   0  0  0  0  0  0  0  0  0  0  0  0
  -11.3286   -4.4551   14.1438 C   0  0  1  0  0  0  0  0  0  0  0  0
  -10.6540   -3.2430   13.4856 C   0  0  0  0  0  0  0  0  0  0  0  0
   -9.5212   -3.5847   12.6008 C   0  0  1  0  0  0  0  0  0  0  0  0
   -8.2263   -3.5114   13.4010 C   0  0  0  0  0  0  0  0  0  0  0  0
   -7.9951   -4.9312   13.7448 C   0  0  0  0  0  0  0  0  0  0  0  0
   -9.2315   -5.6443   13.3103 C   0  0  1  0  0  0  0  0  0  0  0  0
  -10.3870   -5.5491   14.2321 C   0  0  0  0  0  0  0  0  0  0  0  0
   -9.5866   -4.9479   12.0838 N   0  0  0  0  0  0  0  0  0  0  0  0
   -8.5630   -5.0372   11.0497 C   0  0  0  0  0  0  0  0  0  0  0  0
   -8.8313   -3.9210   10.0681 C   0  0  0  0  0  0  0  0  0  0  0  0
   -7.6855   -3.6096    9.1695 C   0  0  2  0  0  0  0  0  0  0  0  0
   -7.0254   -2.3699    9.5776 N   0  0  0  0  0  0  0  0  0  0  0  0
   -5.5831   -2.4227    9.5453 C   0  0  0  0  0  0  0  0  0  0  0  0
   -5.0325   -3.3982    8.9827 O   0  0  0  0  0  0  0  0  0  0  0  0
   -4.7295   -1.3936   10.1336 C   0  0  0  0  0  0  0  0  0  0  0  0
   -5.1870   -0.0127    9.6959 C   0  0  0  0  0  0  0  0  0  0  0  0
   -4.3641    1.0571   10.3843 C   0  0  0  0  0  0  0  0  0  0  0  0
   -2.9081    0.9464    9.9714 C   0  0  0  0  0  0  0  0  0  0  0  0
   -2.7382    1.2829    8.6615 F   0  0  0  0  0  0  0  0  0  0  0  0
   -2.1938    1.7857   10.7967 F   0  0  0  0  0  0  0  0  0  0  0  0
   -2.4569   -0.4723   10.2987 C   0  0  0  0  0  0  0  0  0  0  0  0
   -3.2935   -1.5070    9.6077 C   0  0  0  0  0  0  0  0  0  0  0  0
   -8.2928   -3.3880    7.7901 C   0  0  0  0  0  0  0  0  0  0  0  0
   -8.8206   -4.4232    7.0750 C   0  0  0  0  0  0  0  0  0  0  0  0
   -9.3957   -4.1831    5.8132 C   0  0  0  0  0  0  0  0  0  0  0  0
   -9.4009   -2.8620    5.3515 C   0  0  0  0  0  0  0  0  0  0  0  0
   -8.8797   -1.8179    6.0547 C   0  0  0  0  0  0  0  0  0  0  0  0
   -8.3180   -2.0775    7.2860 C   0  0  0  0  0  0  0  0  0  0  0  0
  1  2  1  0
  2  3  2  0
  3  4  1  0
  4  5  2  0
  5  6  1  0
  6  7  1  0
  6  8  1  0
  5  9  1  0
 10  9  1  1
 10 11  1  0
 12 11  1  1
 12 13  1  0
 13 14  1  0
 15 14  1  1
 15 16  1  0
 15 17  1  0
 17 18  1  0
 18 19  1  0
 20 19  1  1
 20 21  1  0
 21 22  1  0
 22 23  2  0
 22 24  1  0
 24 25  1  0
 25 26  1  0
 26 27  1  0
 27 28  1  0
 27 29  1  0
 27 30  1  0
 30 31  1  0
 20 32  1  0
 32 33  2  0
 33 34  1  0
 34 35  2  0
 35 36  1  0
 36 37  2  0
  9  2  1  0
 16 10  1  0
 31 24  1  0
 37 32  1  0
 17 12  1  0
M  END
$$$$
