
     RDKit          3D

 24 28  0  0  0  0  0  0  0  0999 V2000
    2.8156    3.4049  -13.1997 C   0  0  0  0  0  0  0  0  0  0  0  0
    3.1518    2.1423  -12.9340 C   0  0  0  0  0  0  0  0  0  0  0  0
    2.3121    1.2378  -12.1080 C   0  0  0  0  0  0  0  0  0  0  0  0
    1.5926    0.2765  -12.8546 N   0  0  0  0  0  0  0  0  0  0  0  0
    1.9532    0.0790  -14.1955 C   0  0  0  0  0  0  0  0  0  0  0  0
    1.4835   -1.1304  -14.8889 C   0  0  0  0  0  0  0  0  0  0  0  0
    1.0500   -2.2780  -14.0152 C   0  0  1  0  0  0  0  0  0  0  0  0
   -0.4296   -2.3748  -13.9144 C   0  0  0  0  0  0  0  0  0  0  0  0
   -1.1921   -1.6134  -13.0704 C   0  0  0  0  0  0  0  0  0  0  0  0
   -2.5546   -1.8156  -13.0871 C   0  0  0  0  0  0  0  0  0  0  0  0
   -3.1050   -2.7745  -13.9491 C   0  0  0  0  0  0  0  0  0  0  0  0
   -2.2771   -3.5251  -14.7913 C   0  0  0  0  0  0  0  0  0  0  0  0
   -2.8038   -4.4657  -15.6389 O   0  0  0  0  0  0  0  0  0  0  0  0
   -0.9125   -3.3140  -14.7668 C   0  0  0  0  0  0  0  0  0  0  0  0
    0.1913   -3.8417  -15.4280 O   0  0  0  0  0  0  0  0  0  0  0  0
    1.3670   -3.5923  -14.6366 C   0  0  2  0  0  0  0  0  0  0  0  0
    1.4151   -4.6681  -13.6137 C   0  0  0  0  0  0  0  0  0  0  0  0
    2.0106   -5.7081  -13.8668 O   0  0  0  0  0  0  0  0  0  0  0  0
    0.7317   -4.4253  -12.3221 C   0  0  0  0  0  0  0  0  0  0  0  0
    1.3320   -3.1980  -11.6914 C   0  0  0  0  0  0  0  0  0  0  0  0
    1.5537   -2.0570  -12.6267 C   0  0  1  0  0  0  0  0  0  0  0  0
    2.9307   -1.8328  -12.7154 O   0  0  0  0  0  0  0  0  0  0  0  0
    0.9522   -0.7625  -12.1449 C   0  0  2  0  0  0  0  0  0  0  0  0
   -0.5148   -0.6304  -12.1955 C   0  0  0  0  0  0  0  0  0  0  0  0
  1  2  2  0
  2  3  1  0
  3  4  1  0
  4  5  1  0
  5  6  1  0
  7  6  1  6
  7  8  1  0
  8  9  2  0
  9 10  1  0
 10 11  2  0
 11 12  1  0
 12 13  1  0
 12 14  2  0
 14 15  1  0
 16 15  1  6
 16 17  1  0
 17 18  2  0
 17 19  1  0
 19 20  1  0
 20 21  1  0
 21 22  1  6
 21 23  1  0
 23 24  1  6
 23  4  1  0
 16  7  1  0
 21  7  1  0
 14  8  1  0
 24  9  1  0
M  END
$$$$
