
     RDKit          3D

 25 30  0  0  0  0  0  0  0  0999 V2000
    5.0678   -3.2350  -17.6256 O   0  0  0  0  0  0  0  0  0  0  0  0
    4.5103   -2.2715  -17.0711 C   0  0  0  0  0  0  0  0  0  0  0  0
    3.7866   -1.3228  -17.9240 C   0  0  0  0  0  0  0  0  0  0  0  0
    2.7195   -0.5459  -17.2314 C   0  0  0  0  0  0  0  0  0  0  0  0
    2.9065   -0.3462  -15.7770 C   0  0  1  0  0  0  0  0  0  0  0  0
    3.7690    0.7312  -15.5779 O   0  0  0  0  0  0  0  0  0  0  0  0
    1.6084    0.0292  -15.0651 C   0  0  1  0  0  0  0  0  0  0  0  0
    0.5433   -1.0246  -15.1252 C   0  0  0  0  0  0  0  0  0  0  0  0
    1.1228   -2.3867  -15.1775 C   0  0  0  0  0  0  0  0  0  0  0  0
    0.3087   -3.5230  -15.2771 C   0  0  0  0  0  0  0  0  0  0  0  0
    0.9031   -4.7895  -15.3284 C   0  0  0  0  0  0  0  0  0  0  0  0
    2.2861   -4.9405  -15.2824 C   0  0  0  0  0  0  0  0  0  0  0  0
    2.9040   -6.1807  -15.3314 O   0  0  0  0  0  0  0  0  0  0  0  0
    3.0846   -3.8279  -15.1848 C   0  0  0  0  0  0  0  0  0  0  0  0
    2.4593   -2.6064  -15.1373 C   0  0  0  0  0  0  0  0  0  0  0  0
    3.4642   -1.5052  -15.0320 C   0  0  2  0  0  0  0  0  0  0  0  0
    3.6369   -1.2108  -13.5871 C   0  0  0  0  0  0  0  0  0  0  0  0
    3.0081    0.0432  -13.0773 C   0  0  0  0  0  0  0  0  0  0  0  0
    1.8115    0.3899  -13.7212 N   0  0  0  0  0  0  0  0  0  0  0  0
    0.8255    1.0963  -13.0282 C   0  0  0  0  0  0  0  0  0  0  0  0
    1.3694    2.0487  -12.0057 C   0  0  0  0  0  0  0  0  0  0  0  0
    0.4091    2.7404  -11.0817 C   0  0  0  0  0  0  0  0  0  0  0  0
    1.3529    1.6731  -10.5538 C   0  0  0  0  0  0  0  0  0  0  0  0
    4.6453   -2.1971  -15.6079 C   0  0  1  0  0  0  0  0  0  0  0  0
    4.4414   -3.5407  -15.1146 O   0  0  0  0  0  0  0  0  0  0  0  0
  1  2  2  0
  2  3  1  0
  3  4  1  0
  4  5  1  0
  5  6  1  6
  5  7  1  0
  7  8  1  1
  8  9  1  0
  9 10  1  0
 10 11  2  0
 11 12  1  0
 12 13  1  0
 12 14  2  0
 14 15  1  0
 15 16  1  0
 16 17  1  1
 17 18  1  0
 18 19  1  0
 19 20  1  0
 20 21  1  0
 21 22  1  0
 22 23  1  0
 16 24  1  0
 24 25  1  1
 24  2  1  0
 16  5  1  0
 23 21  1  0
 19  7  1  0
 15  9  2  0
 25 14  1  0
M  END
$$$$
