
     RDKit          3D

 31 34  0  0  0  0  0  0  0  0999 V2000
    2.9805   -1.7263   -9.6365 C   0  0  0  0  0  0  0  0  0  0  0  0
    3.1251   -3.0045  -10.3424 C   0  0  0  0  0  0  0  0  0  0  0  0
    4.2372   -3.7701  -10.0844 C   0  0  0  0  0  0  0  0  0  0  0  0
    4.4163   -4.9928  -10.7258 C   0  0  0  0  0  0  0  0  0  0  0  0
    3.5232   -5.5029  -11.6307 C   0  0  0  0  0  0  0  0  0  0  0  0
    3.6446   -6.7297  -12.3078 N   0  0  0  0  0  0  0  0  0  0  0  0
    2.9039   -7.1404  -13.4392 C   0  0  0  0  0  0  0  0  0  0  0  0
    3.0008   -8.3140  -14.0541 N   0  0  0  0  0  0  0  0  0  0  0  0
    2.3174   -8.7505  -15.1075 C   0  0  0  0  0  0  0  0  0  0  0  0
    1.3777   -7.8791  -15.6465 C   0  0  0  0  0  0  0  0  0  0  0  0
    1.2330   -6.6268  -15.0370 C   0  0  0  0  0  0  0  0  0  0  0  0
    0.2384   -5.7816  -15.5995 N   0  0  0  0  0  0  0  0  0  0  0  0
   -0.6887   -6.4107  -16.5465 C   0  0  0  0  0  0  0  0  0  0  0  0
    0.1259   -4.3971  -15.3099 C   0  0  0  0  0  0  0  0  0  0  0  0
   -1.0488   -3.7375  -15.0918 C   0  0  0  0  0  0  0  0  0  0  0  0
   -1.0638   -2.3764  -14.7924 C   0  0  0  0  0  0  0  0  0  0  0  0
    0.0946   -1.6392  -14.7035 C   0  0  0  0  0  0  0  0  0  0  0  0
    0.4500   -0.3392  -14.4343 C   0  0  0  0  0  0  0  0  0  0  0  0
   -0.5234    0.7382  -14.1300 C   0  0  0  0  0  0  0  0  0  0  0  0
    1.7880   -0.2153  -14.4890 N   0  0  0  0  0  0  0  0  0  0  0  0
    2.6182    0.9517  -14.2797 C   0  0  0  0  0  0  0  0  0  0  0  0
    2.2696   -1.4068  -14.7844 N   0  0  0  0  0  0  0  0  0  0  0  0
    1.2808   -2.3079  -14.9248 C   0  0  0  0  0  0  0  0  0  0  0  0
    1.3105   -3.6532  -15.2224 C   0  0  0  0  0  0  0  0  0  0  0  0
    1.9793   -6.2765  -13.9655 N   0  0  0  0  0  0  0  0  0  0  0  0
    2.3993   -4.7220  -11.8876 C   0  0  0  0  0  0  0  0  0  0  0  0
    2.2016   -3.4962  -11.2571 C   0  0  0  0  0  0  0  0  0  0  0  0
    0.8017   -2.5051  -11.5727 S   0  0  0  0  0  0  0  0  0  0  0  0
   -0.4919   -2.9679  -10.4913 N   0  0  0  0  0  0  0  0  0  0  0  0
    1.0392   -1.0524  -11.3604 O   0  0  0  0  0  0  0  0  0  0  0  0
    0.3484   -2.8139  -12.9914 O   0  0  0  0  0  0  0  0  0  0  0  0
  1  2  1  0
  2  3  1  0
  3  4  2  0
  4  5  1  0
  5  6  1  0
  6  7  1  0
  7  8  2  0
  8  9  1  0
  9 10  2  0
 10 11  1  0
 11 12  1  0
 12 13  1  0
 12 14  1  0
 14 15  1  0
 15 16  2  0
 16 17  1  0
 17 18  2  0
 18 19  1  0
 18 20  1  0
 20 21  1  0
 20 22  1  0
 22 23  2  0
 23 24  1  0
 11 25  2  0
  5 26  2  0
 26 27  1  0
 27 28  1  0
 28 29  1  0
 28 30  2  0
 28 31  2  0
 27  2  2  0
 25  7  1  0
 24 14  2  0
 23 17  1  0
M  END
$$$$
