
     RDKit          3D

 34 37  0  0  0  0  0  0  0  0999 V2000
   -4.9226   40.7445   16.3234 C   0  0  0  0  0  0  0  0  0  0  0  0
   -5.5424   41.4907   15.2434 N   0  0  0  0  0  0  0  0  0  0  0  0
   -5.2816   40.8951   13.9508 C   0  0  0  0  0  0  0  0  0  0  0  0
   -6.9579   41.6668   15.4609 C   0  0  0  0  0  0  0  0  0  0  0  0
   -7.7003   40.4038   15.3528 C   0  0  0  0  0  0  0  0  0  0  0  0
   -9.0057   40.2642   15.4732 C   0  0  0  0  0  0  0  0  0  0  0  0
   -9.7079   38.9974   15.3442 C   0  0  0  0  0  0  0  0  0  0  0  0
   -9.0828   37.9091   15.1241 O   0  0  0  0  0  0  0  0  0  0  0  0
  -11.1241   38.8706   15.4508 N   0  0  0  0  0  0  0  0  0  0  0  0
  -11.6657   37.5416   15.3049 C   0  0  0  0  0  0  0  0  0  0  0  0
  -10.8379   36.4954   14.9182 C   0  0  0  0  0  0  0  0  0  0  0  0
  -11.3044   35.2141   14.7676 C   0  0  0  0  0  0  0  0  0  0  0  0
  -10.4951   34.1494   14.3758 C   0  0  0  0  0  0  0  0  0  0  0  0
   -9.1352   34.3425   14.1383 N   0  0  0  0  0  0  0  0  0  0  0  0
   -8.2275   33.3607   13.6277 C   0  0  0  0  0  0  0  0  0  0  0  0
   -6.9474   33.2362   14.1732 C   0  0  0  0  0  0  0  0  0  0  0  0
   -6.0286   32.3247   13.7163 C   0  0  0  0  0  0  0  0  0  0  0  0
   -6.3389   31.4829   12.6843 C   0  0  0  0  0  0  0  0  0  0  0  0
   -5.4365   30.5797   12.2297 F   0  0  0  0  0  0  0  0  0  0  0  0
   -7.5926   31.5817   12.1264 C   0  0  0  0  0  0  0  0  0  0  0  0
   -8.0040   30.5042   10.7982 Cl  0  0  0  0  0  0  0  0  0  0  0  0
   -8.5268   32.5121   12.5940 C   0  0  0  0  0  0  0  0  0  0  0  0
  -11.1033   32.9613   14.2689 N   0  0  0  0  0  0  0  0  0  0  0  0
  -12.3996   32.7464   14.5090 C   0  0  0  0  0  0  0  0  0  0  0  0
  -13.1734   33.7830   14.8873 N   0  0  0  0  0  0  0  0  0  0  0  0
  -12.6580   35.0180   15.0238 C   0  0  0  0  0  0  0  0  0  0  0  0
  -13.4879   36.0458   15.4069 C   0  0  0  0  0  0  0  0  0  0  0  0
  -13.0283   37.3321   15.5603 C   0  0  0  0  0  0  0  0  0  0  0  0
  -13.7577   38.4157   15.9322 O   0  0  0  0  0  0  0  0  0  0  0  0
  -15.1376   38.4340   16.0043 C   0  0  1  0  0  0  0  0  0  0  0  0
  -15.6676   39.2085   17.1911 C   0  0  0  0  0  0  0  0  0  0  0  0
  -16.2243   40.4517   16.5560 C   0  0  0  0  0  0  0  0  0  0  0  0
  -16.6799   40.0438   15.2953 O   0  0  0  0  0  0  0  0  0  0  0  0
  -15.6344   39.2702   14.8084 C   0  0  0  0  0  0  0  0  0  0  0  0
  1  2  1  0
  2  3  1  0
  2  4  1  0
  4  5  1  0
  5  6  2  0
  6  7  1  0
  7  8  2  0
  7  9  1  0
  9 10  1  0
 10 11  2  0
 11 12  1  0
 12 13  2  0
 13 14  1  0
 14 15  1  0
 15 16  1  0
 16 17  2  0
 17 18  1  0
 18 19  1  0
 18 20  2  0
 20 21  1  0
 20 22  1  0
 13 23  1  0
 23 24  2  0
 24 25  1  0
 25 26  2  0
 26 27  1  0
 27 28  2  0
 28 29  1  0
 30 29  1  1
 30 31  1  0
 31 32  1  0
 32 33  1  0
 33 34  1  0
 28 10  1  0
 34 30  1  0
 26 12  1  0
 22 15  2  0
M  END
$$$$
